72
Lattice="6.253257149266417 -10.83095909532275 0.0 6.253257149266417 10.83095909532275 0.0 0.0 0.0 13.55923482" Properties=species:S:1:pos:R:3 pbc="T T T"
Cd       2.08441905      -1.20343990       3.39132985
Cd       2.08441905       1.20343990       0.00152114
Cd       2.08441905      -1.20343990       5.94420333
Cd       2.08441905       1.20343990       2.55439462
Cd       2.08441905      -1.20343990      10.17094726
Cd       2.08441905       1.20343990       6.78113855
Cd       2.08441905      -1.20343990      12.72382074
Cd       2.08441905       1.20343990       9.33401203
Cd       4.16883810       2.40687980       3.39132985
Cd       4.16883810       4.81375960       0.00152114
Cd       4.16883810       2.40687980       5.94420333
Cd       4.16883810       4.81375960       2.55439462
Cd       4.16883810       2.40687980      10.17094726
Cd       4.16883810       4.81375960       6.78113855
Cd       4.16883810       2.40687980      12.72382074
Cd       4.16883810       4.81375960       9.33401203
Cd       6.25325715       6.01719950       3.39132985
Cd       6.25325715       8.42407930       0.00152114
Cd       6.25325715       6.01719950       5.94420333
Cd       6.25325715       8.42407930       2.55439462
Cd       6.25325715       6.01719950      10.17094726
Cd       6.25325715       8.42407930       6.78113855
Cd       6.25325715       6.01719950      12.72382074
Cd       6.25325715       8.42407930       9.33401203
Cd       4.16883810      -4.81375960       3.39132985
Cd       4.16883810      -2.40687980       0.00152114
Cd       4.16883810      -4.81375960       5.94420333
Cd       4.16883810      -2.40687980       2.55439462
Cd       4.16883810      -4.81375960      10.17094726
Cd       4.16883810      -2.40687980       6.78113855
Cd       4.16883810      -4.81375960      12.72382074
Cd       4.16883810      -2.40687980       9.33401203
Cd       6.25325715      -1.20343990       3.39132985
Cd       6.25325715       1.20343990       0.00152114
Cd       6.25325715      -1.20343990       5.94420333
Cd       6.25325715       1.20343990       2.55439462
S        6.25325715      -1.20343990      10.17094726
S        6.25325715       1.20343990       6.78113855
S        6.25325715      -1.20343990      12.72382074
S        6.25325715       1.20343990       9.33401203
S        8.33767620       2.40687980       3.39132985
S        8.33767620       4.81375960       0.00152114
S        8.33767620       2.40687980       5.94420333
S        8.33767620       4.81375960       2.55439462
S        8.33767620       2.40687980      10.17094726
S        8.33767620       4.81375960       6.78113855
S        8.33767620       2.40687980      12.72382074
S        8.33767620       4.81375960       9.33401203
S        6.25325715      -8.42407930       3.39132985
S        6.25325715      -6.01719950       0.00152114
S        6.25325715      -8.42407930       5.94420333
S        6.25325715      -6.01719950       2.55439462
S        6.25325715      -8.42407930      10.17094726
S        6.25325715      -6.01719950       6.78113855
S        6.25325715      -8.42407930      12.72382074
S        6.25325715      -6.01719950       9.33401203
S        8.33767620      -4.81375960       3.39132985
S        8.33767620      -2.40687980       0.00152114
S        8.33767620      -4.81375960       5.94420333
S        8.33767620      -2.40687980       2.55439462
S        8.33767620      -4.81375960      10.17094726
S        8.33767620      -2.40687980       6.78113855
S        8.33767620      -4.81375960      12.72382074
S        8.33767620      -2.40687980       9.33401203
S       10.42209525      -1.20343990       3.39132985
S       10.42209525       1.20343990       0.00152114
S       10.42209525      -1.20343990       5.94420333
S       10.42209525       1.20343990       2.55439462
S       10.42209525      -1.20343990      10.17094726
S       10.42209525       1.20343990       6.78113855
S       10.42209525      -1.20343990      12.72382074
S       10.42209525       1.20343990       9.33401203
